
---------- Begin Simulation Statistics ----------
final_tick                               3718824543000                       # Number of ticks from beginning of simulation (restored from checkpoints and never reset)
host_inst_rate                                 163084                       # Simulator instruction rate (inst/s)
host_mem_usage                                2639304                       # Number of bytes of host memory used
host_op_rate                                   192809                       # Simulator op (including micro ops) rate (op/s)
host_seconds                                  4896.55                       # Real time elapsed on the host
host_tick_rate                              759478560                       # Simulator tick rate (ticks/s)
sim_freq                                 1000000000000                       # Frequency of simulated ticks
sim_insts                                   798546877                       # Number of instructions simulated
sim_ops                                     944097422                       # Number of ops (including micro ops) simulated
sim_seconds                                  3.718825                       # Number of seconds simulated
sim_ticks                                3718824543000                       # Number of ticks simulated
system.bootmem.bw_inst_read::.cpu_cluster.cpus.inst          155                       # Instruction read bandwidth from this memory (bytes/s)
system.bootmem.bw_inst_read::total                155                       # Instruction read bandwidth from this memory (bytes/s)
system.bootmem.bw_read::.cpu_cluster.cpus.inst          155                       # Total read bandwidth from this memory (bytes/s)
system.bootmem.bw_read::.cpu_cluster.cpus.data           12                       # Total read bandwidth from this memory (bytes/s)
system.bootmem.bw_read::total                     167                       # Total read bandwidth from this memory (bytes/s)
system.bootmem.bw_total::.cpu_cluster.cpus.inst          155                       # Total bandwidth to/from this memory (bytes/s)
system.bootmem.bw_total::.cpu_cluster.cpus.data           12                       # Total bandwidth to/from this memory (bytes/s)
system.bootmem.bw_total::total                    167                       # Total bandwidth to/from this memory (bytes/s)
system.bootmem.bytes_inst_read::.cpu_cluster.cpus.inst          576                       # Number of instructions bytes read from this memory
system.bootmem.bytes_inst_read::total             576                       # Number of instructions bytes read from this memory
system.bootmem.bytes_read::.cpu_cluster.cpus.inst          576                       # Number of bytes read from this memory
system.bootmem.bytes_read::.cpu_cluster.cpus.data           44                       # Number of bytes read from this memory
system.bootmem.bytes_read::total                  620                       # Number of bytes read from this memory
system.bootmem.num_reads::.cpu_cluster.cpus.inst            9                       # Number of read requests responded to by this memory
system.bootmem.num_reads::.cpu_cluster.cpus.data            6                       # Number of read requests responded to by this memory
system.bootmem.num_reads::total                    15                       # Number of read requests responded to by this memory
system.bootmem.pwrStateResidencyTicks::UNDEFINED 3718824543000                       # Cumulative time (in ticks) in various power states
system.clk_domain.clock                          1000                       # Clock period in ticks
system.cpu_cluster.clk_domain.clock               250                       # Clock period in ticks
system.cpu_cluster.cpus.branchPred.BTBCorrect            0                       # Number of correct BTB predictions (this stat may not work properly.
system.cpu_cluster.cpus.branchPred.BTBHitPct    35.637308                       # BTB Hit Percentage
system.cpu_cluster.cpus.branchPred.BTBHits     76614159                       # Number of BTB hits
system.cpu_cluster.cpus.branchPred.BTBLookups    214983016                       # Number of BTB lookups
system.cpu_cluster.cpus.branchPred.RASInCorrect      1229170                       # Number of incorrect RAS predictions.
system.cpu_cluster.cpus.branchPred.condIncorrect     28491590                       # Number of conditional branches incorrect
system.cpu_cluster.cpus.branchPred.condPredicted    170902174                       # Number of conditional branches predicted
system.cpu_cluster.cpus.branchPred.indirectHits      5167854                       # Number of indirect target hits.
system.cpu_cluster.cpus.branchPred.indirectLookups      7468070                       # Number of indirect predictor lookups.
system.cpu_cluster.cpus.branchPred.indirectMisses      2300216                       # Number of indirect misses.
system.cpu_cluster.cpus.branchPred.lookups    274584524                       # Number of BP lookups
system.cpu_cluster.cpus.branchPred.usedRAS     38249803                       # Number of times the RAS was used to get a target.
system.cpu_cluster.cpus.branchPredindirectMispredicted       823684                       # Number of mispredicted indirect branches.
system.cpu_cluster.cpus.committedInsts      798546877                       # Number of instructions committed
system.cpu_cluster.cpus.committedOps        944097422                       # Number of ops (including micro ops) committed
system.cpu_cluster.cpus.cpi                  3.180049                       # CPI: cycles per instruction
system.cpu_cluster.cpus.dcache.CleanInvalidReq_avg_mshr_miss_latency::.cpu_cluster.cpus.data 18227.386502                       # average CleanInvalidReq mshr miss latency
system.cpu_cluster.cpus.dcache.CleanInvalidReq_avg_mshr_miss_latency::total 18227.386502                       # average CleanInvalidReq mshr miss latency
system.cpu_cluster.cpus.dcache.CleanInvalidReq_mshr_miss_latency::.cpu_cluster.cpus.data  17935803000                       # number of CleanInvalidReq MSHR miss cycles
system.cpu_cluster.cpus.dcache.CleanInvalidReq_mshr_miss_latency::total  17935803000                       # number of CleanInvalidReq MSHR miss cycles
system.cpu_cluster.cpus.dcache.CleanInvalidReq_mshr_miss_rate::.cpu_cluster.cpus.data          inf                       # mshr miss rate for CleanInvalidReq accesses
system.cpu_cluster.cpus.dcache.CleanInvalidReq_mshr_miss_rate::total          inf                       # mshr miss rate for CleanInvalidReq accesses
system.cpu_cluster.cpus.dcache.CleanInvalidReq_mshr_misses::.cpu_cluster.cpus.data       984003                       # number of CleanInvalidReq MSHR misses
system.cpu_cluster.cpus.dcache.CleanInvalidReq_mshr_misses::total       984003                       # number of CleanInvalidReq MSHR misses
system.cpu_cluster.cpus.dcache.CleanSharedReq_avg_miss_latency::.cpu_cluster.cpus.data          inf                       # average CleanSharedReq miss latency
system.cpu_cluster.cpus.dcache.CleanSharedReq_avg_miss_latency::total          inf                       # average CleanSharedReq miss latency
system.cpu_cluster.cpus.dcache.CleanSharedReq_avg_mshr_miss_latency::.cpu_cluster.cpus.data 981413.653333                       # average CleanSharedReq mshr miss latency
system.cpu_cluster.cpus.dcache.CleanSharedReq_avg_mshr_miss_latency::total 981413.653333                       # average CleanSharedReq mshr miss latency
system.cpu_cluster.cpus.dcache.CleanSharedReq_miss_latency::.cpu_cluster.cpus.data          500                       # number of CleanSharedReq miss cycles
system.cpu_cluster.cpus.dcache.CleanSharedReq_miss_latency::total          500                       # number of CleanSharedReq miss cycles
system.cpu_cluster.cpus.dcache.CleanSharedReq_mshr_hits::.cpu_cluster.cpus.data         2700                       # number of CleanSharedReq MSHR hits
system.cpu_cluster.cpus.dcache.CleanSharedReq_mshr_hits::total         2700                       # number of CleanSharedReq MSHR hits
system.cpu_cluster.cpus.dcache.CleanSharedReq_mshr_miss_latency::.cpu_cluster.cpus.data     73606024                       # number of CleanSharedReq MSHR miss cycles
system.cpu_cluster.cpus.dcache.CleanSharedReq_mshr_miss_latency::total     73606024                       # number of CleanSharedReq MSHR miss cycles
system.cpu_cluster.cpus.dcache.CleanSharedReq_mshr_miss_rate::.cpu_cluster.cpus.data          inf                       # mshr miss rate for CleanSharedReq accesses
system.cpu_cluster.cpus.dcache.CleanSharedReq_mshr_miss_rate::total          inf                       # mshr miss rate for CleanSharedReq accesses
system.cpu_cluster.cpus.dcache.CleanSharedReq_mshr_misses::.cpu_cluster.cpus.data           75                       # number of CleanSharedReq MSHR misses
system.cpu_cluster.cpus.dcache.CleanSharedReq_mshr_misses::total           75                       # number of CleanSharedReq MSHR misses
system.cpu_cluster.cpus.dcache.HardPFReq_avg_mshr_miss_latency::.cpu_cluster.cpus.dcache.prefetcher 57604.378305                       # average HardPFReq mshr miss latency
system.cpu_cluster.cpus.dcache.HardPFReq_avg_mshr_miss_latency::total 57604.378305                       # average HardPFReq mshr miss latency
system.cpu_cluster.cpus.dcache.HardPFReq_mshr_miss_latency::.cpu_cluster.cpus.dcache.prefetcher 166517379596                       # number of HardPFReq MSHR miss cycles
system.cpu_cluster.cpus.dcache.HardPFReq_mshr_miss_latency::total 166517379596                       # number of HardPFReq MSHR miss cycles
system.cpu_cluster.cpus.dcache.HardPFReq_mshr_miss_rate::.cpu_cluster.cpus.dcache.prefetcher          inf                       # mshr miss rate for HardPFReq accesses
system.cpu_cluster.cpus.dcache.HardPFReq_mshr_miss_rate::total          inf                       # mshr miss rate for HardPFReq accesses
system.cpu_cluster.cpus.dcache.HardPFReq_mshr_misses::.cpu_cluster.cpus.dcache.prefetcher      2890707                       # number of HardPFReq MSHR misses
system.cpu_cluster.cpus.dcache.HardPFReq_mshr_misses::total      2890707                       # number of HardPFReq MSHR misses
system.cpu_cluster.cpus.dcache.InvalidateReq_avg_mshr_miss_latency::.cpu_cluster.cpus.data 14248.442368                       # average InvalidateReq mshr miss latency
system.cpu_cluster.cpus.dcache.InvalidateReq_avg_mshr_miss_latency::total 14248.442368                       # average InvalidateReq mshr miss latency
system.cpu_cluster.cpus.dcache.InvalidateReq_mshr_miss_latency::.cpu_cluster.cpus.data      9147500                       # number of InvalidateReq MSHR miss cycles
system.cpu_cluster.cpus.dcache.InvalidateReq_mshr_miss_latency::total      9147500                       # number of InvalidateReq MSHR miss cycles
system.cpu_cluster.cpus.dcache.InvalidateReq_mshr_miss_rate::.cpu_cluster.cpus.data          inf                       # mshr miss rate for InvalidateReq accesses
system.cpu_cluster.cpus.dcache.InvalidateReq_mshr_miss_rate::total          inf                       # mshr miss rate for InvalidateReq accesses
system.cpu_cluster.cpus.dcache.InvalidateReq_mshr_misses::.cpu_cluster.cpus.data          642                       # number of InvalidateReq MSHR misses
system.cpu_cluster.cpus.dcache.InvalidateReq_mshr_misses::total          642                       # number of InvalidateReq MSHR misses
system.cpu_cluster.cpus.dcache.LoadLockedReq_accesses::.cpu_cluster.cpus.data      3963618                       # number of LoadLockedReq accesses(hits+misses)
system.cpu_cluster.cpus.dcache.LoadLockedReq_accesses::total      3963618                       # number of LoadLockedReq accesses(hits+misses)
system.cpu_cluster.cpus.dcache.LoadLockedReq_avg_miss_latency::.cpu_cluster.cpus.data 12406.347369                       # average LoadLockedReq miss latency
system.cpu_cluster.cpus.dcache.LoadLockedReq_avg_miss_latency::total 12406.347369                       # average LoadLockedReq miss latency
system.cpu_cluster.cpus.dcache.LoadLockedReq_avg_mshr_miss_latency::.cpu_cluster.cpus.data  9072.510184                       # average LoadLockedReq mshr miss latency
system.cpu_cluster.cpus.dcache.LoadLockedReq_avg_mshr_miss_latency::total  9072.510184                       # average LoadLockedReq mshr miss latency
system.cpu_cluster.cpus.dcache.LoadLockedReq_hits::.cpu_cluster.cpus.data      3828013                       # number of LoadLockedReq hits
system.cpu_cluster.cpus.dcache.LoadLockedReq_hits::total      3828013                       # number of LoadLockedReq hits
system.cpu_cluster.cpus.dcache.LoadLockedReq_miss_latency::.cpu_cluster.cpus.data   1682362735                       # number of LoadLockedReq miss cycles
system.cpu_cluster.cpus.dcache.LoadLockedReq_miss_latency::total   1682362735                       # number of LoadLockedReq miss cycles
system.cpu_cluster.cpus.dcache.LoadLockedReq_miss_rate::.cpu_cluster.cpus.data     0.034212                       # miss rate for LoadLockedReq accesses
system.cpu_cluster.cpus.dcache.LoadLockedReq_miss_rate::total     0.034212                       # miss rate for LoadLockedReq accesses
system.cpu_cluster.cpus.dcache.LoadLockedReq_misses::.cpu_cluster.cpus.data       135605                       # number of LoadLockedReq misses
system.cpu_cluster.cpus.dcache.LoadLockedReq_misses::total       135605                       # number of LoadLockedReq misses
system.cpu_cluster.cpus.dcache.LoadLockedReq_mshr_hits::.cpu_cluster.cpus.data       118666                       # number of LoadLockedReq MSHR hits
system.cpu_cluster.cpus.dcache.LoadLockedReq_mshr_hits::total       118666                       # number of LoadLockedReq MSHR hits
system.cpu_cluster.cpus.dcache.LoadLockedReq_mshr_miss_latency::.cpu_cluster.cpus.data    153679250                       # number of LoadLockedReq MSHR miss cycles
system.cpu_cluster.cpus.dcache.LoadLockedReq_mshr_miss_latency::total    153679250                       # number of LoadLockedReq MSHR miss cycles
system.cpu_cluster.cpus.dcache.LoadLockedReq_mshr_miss_rate::.cpu_cluster.cpus.data     0.004274                       # mshr miss rate for LoadLockedReq accesses
system.cpu_cluster.cpus.dcache.LoadLockedReq_mshr_miss_rate::total     0.004274                       # mshr miss rate for LoadLockedReq accesses
system.cpu_cluster.cpus.dcache.LoadLockedReq_mshr_misses::.cpu_cluster.cpus.data        16939                       # number of LoadLockedReq MSHR misses
system.cpu_cluster.cpus.dcache.LoadLockedReq_mshr_misses::total        16939                       # number of LoadLockedReq MSHR misses
system.cpu_cluster.cpus.dcache.ReadReq_accesses::.cpu_cluster.cpus.data    160759377                       # number of ReadReq accesses(hits+misses)
system.cpu_cluster.cpus.dcache.ReadReq_accesses::total    160759377                       # number of ReadReq accesses(hits+misses)
system.cpu_cluster.cpus.dcache.ReadReq_avg_miss_latency::.cpu_cluster.cpus.data 21255.824756                       # average ReadReq miss latency
system.cpu_cluster.cpus.dcache.ReadReq_avg_miss_latency::total 21255.824756                       # average ReadReq miss latency
system.cpu_cluster.cpus.dcache.ReadReq_avg_mshr_miss_latency::.cpu_cluster.cpus.data 20019.279410                       # average ReadReq mshr miss latency
system.cpu_cluster.cpus.dcache.ReadReq_avg_mshr_miss_latency::total 20019.279410                       # average ReadReq mshr miss latency
system.cpu_cluster.cpus.dcache.ReadReq_avg_mshr_uncacheable_latency::.cpu_cluster.cpus.data 196471.012477                       # average ReadReq mshr uncacheable latency
system.cpu_cluster.cpus.dcache.ReadReq_avg_mshr_uncacheable_latency::total 196471.012477                       # average ReadReq mshr uncacheable latency
system.cpu_cluster.cpus.dcache.ReadReq_hits::.cpu_cluster.cpus.data    154721573                       # number of ReadReq hits
system.cpu_cluster.cpus.dcache.ReadReq_hits::total    154721573                       # number of ReadReq hits
system.cpu_cluster.cpus.dcache.ReadReq_miss_latency::.cpu_cluster.cpus.data 128338503738                       # number of ReadReq miss cycles
system.cpu_cluster.cpus.dcache.ReadReq_miss_latency::total 128338503738                       # number of ReadReq miss cycles
system.cpu_cluster.cpus.dcache.ReadReq_miss_rate::.cpu_cluster.cpus.data     0.037558                       # miss rate for ReadReq accesses
system.cpu_cluster.cpus.dcache.ReadReq_miss_rate::total     0.037558                       # miss rate for ReadReq accesses
system.cpu_cluster.cpus.dcache.ReadReq_misses::.cpu_cluster.cpus.data      6037804                       # number of ReadReq misses
system.cpu_cluster.cpus.dcache.ReadReq_misses::total      6037804                       # number of ReadReq misses
system.cpu_cluster.cpus.dcache.ReadReq_mshr_hits::.cpu_cluster.cpus.data       930529                       # number of ReadReq MSHR hits
system.cpu_cluster.cpus.dcache.ReadReq_mshr_hits::total       930529                       # number of ReadReq MSHR hits
system.cpu_cluster.cpus.dcache.ReadReq_mshr_miss_latency::.cpu_cluster.cpus.data 102243965250                       # number of ReadReq MSHR miss cycles
system.cpu_cluster.cpus.dcache.ReadReq_mshr_miss_latency::total 102243965250                       # number of ReadReq MSHR miss cycles
system.cpu_cluster.cpus.dcache.ReadReq_mshr_miss_rate::.cpu_cluster.cpus.data     0.031770                       # mshr miss rate for ReadReq accesses
system.cpu_cluster.cpus.dcache.ReadReq_mshr_miss_rate::total     0.031770                       # mshr miss rate for ReadReq accesses
system.cpu_cluster.cpus.dcache.ReadReq_mshr_misses::.cpu_cluster.cpus.data      5107275                       # number of ReadReq MSHR misses
system.cpu_cluster.cpus.dcache.ReadReq_mshr_misses::total      5107275                       # number of ReadReq MSHR misses
system.cpu_cluster.cpus.dcache.ReadReq_mshr_uncacheable::.cpu_cluster.cpus.data        12583                       # number of ReadReq MSHR uncacheable
system.cpu_cluster.cpus.dcache.ReadReq_mshr_uncacheable::total        12583                       # number of ReadReq MSHR uncacheable
system.cpu_cluster.cpus.dcache.ReadReq_mshr_uncacheable_latency::.cpu_cluster.cpus.data   2472194750                       # number of ReadReq MSHR uncacheable cycles
system.cpu_cluster.cpus.dcache.ReadReq_mshr_uncacheable_latency::total   2472194750                       # number of ReadReq MSHR uncacheable cycles
system.cpu_cluster.cpus.dcache.SoftPFExReq_accesses::.cpu_cluster.cpus.data      4363698                       # number of SoftPFExReq accesses(hits+misses)
system.cpu_cluster.cpus.dcache.SoftPFExReq_accesses::total      4363698                       # number of SoftPFExReq accesses(hits+misses)
system.cpu_cluster.cpus.dcache.SoftPFExReq_avg_mshr_miss_latency::.cpu_cluster.cpus.data 45662.768091                       # average SoftPFExReq mshr miss latency
system.cpu_cluster.cpus.dcache.SoftPFExReq_avg_mshr_miss_latency::total 45662.768091                       # average SoftPFExReq mshr miss latency
system.cpu_cluster.cpus.dcache.SoftPFExReq_hits::.cpu_cluster.cpus.data      3738811                       # number of SoftPFExReq hits
system.cpu_cluster.cpus.dcache.SoftPFExReq_hits::total      3738811                       # number of SoftPFExReq hits
system.cpu_cluster.cpus.dcache.SoftPFExReq_miss_rate::.cpu_cluster.cpus.data     0.143201                       # miss rate for SoftPFExReq accesses
system.cpu_cluster.cpus.dcache.SoftPFExReq_miss_rate::total     0.143201                       # miss rate for SoftPFExReq accesses
system.cpu_cluster.cpus.dcache.SoftPFExReq_misses::.cpu_cluster.cpus.data       624887                       # number of SoftPFExReq misses
system.cpu_cluster.cpus.dcache.SoftPFExReq_misses::total       624887                       # number of SoftPFExReq misses
system.cpu_cluster.cpus.dcache.SoftPFExReq_mshr_miss_latency::.cpu_cluster.cpus.data  16687641250                       # number of SoftPFExReq MSHR miss cycles
system.cpu_cluster.cpus.dcache.SoftPFExReq_mshr_miss_latency::total  16687641250                       # number of SoftPFExReq MSHR miss cycles
system.cpu_cluster.cpus.dcache.SoftPFExReq_mshr_miss_rate::.cpu_cluster.cpus.data     0.083749                       # mshr miss rate for SoftPFExReq accesses
system.cpu_cluster.cpus.dcache.SoftPFExReq_mshr_miss_rate::total     0.083749                       # mshr miss rate for SoftPFExReq accesses
system.cpu_cluster.cpus.dcache.SoftPFExReq_mshr_misses::.cpu_cluster.cpus.data       365454                       # number of SoftPFExReq MSHR misses
system.cpu_cluster.cpus.dcache.SoftPFExReq_mshr_misses::total       365454                       # number of SoftPFExReq MSHR misses
system.cpu_cluster.cpus.dcache.SoftPFReq_accesses::.cpu_cluster.cpus.data      1026947                       # number of SoftPFReq accesses(hits+misses)
system.cpu_cluster.cpus.dcache.SoftPFReq_accesses::total      1026947                       # number of SoftPFReq accesses(hits+misses)
system.cpu_cluster.cpus.dcache.SoftPFReq_avg_mshr_miss_latency::.cpu_cluster.cpus.data 39314.310983                       # average SoftPFReq mshr miss latency
system.cpu_cluster.cpus.dcache.SoftPFReq_avg_mshr_miss_latency::total 39314.310983                       # average SoftPFReq mshr miss latency
system.cpu_cluster.cpus.dcache.SoftPFReq_hits::.cpu_cluster.cpus.data        78698                       # number of SoftPFReq hits
system.cpu_cluster.cpus.dcache.SoftPFReq_hits::total        78698                       # number of SoftPFReq hits
system.cpu_cluster.cpus.dcache.SoftPFReq_miss_rate::.cpu_cluster.cpus.data     0.923367                       # miss rate for SoftPFReq accesses
system.cpu_cluster.cpus.dcache.SoftPFReq_miss_rate::total     0.923367                       # miss rate for SoftPFReq accesses
system.cpu_cluster.cpus.dcache.SoftPFReq_misses::.cpu_cluster.cpus.data       948249                       # number of SoftPFReq misses
system.cpu_cluster.cpus.dcache.SoftPFReq_misses::total       948249                       # number of SoftPFReq misses
system.cpu_cluster.cpus.dcache.SoftPFReq_mshr_miss_latency::.cpu_cluster.cpus.data  36251018500                       # number of SoftPFReq MSHR miss cycles
system.cpu_cluster.cpus.dcache.SoftPFReq_mshr_miss_latency::total  36251018500                       # number of SoftPFReq MSHR miss cycles
system.cpu_cluster.cpus.dcache.SoftPFReq_mshr_miss_rate::.cpu_cluster.cpus.data     0.897887                       # mshr miss rate for SoftPFReq accesses
system.cpu_cluster.cpus.dcache.SoftPFReq_mshr_miss_rate::total     0.897887                       # mshr miss rate for SoftPFReq accesses
system.cpu_cluster.cpus.dcache.SoftPFReq_mshr_misses::.cpu_cluster.cpus.data       922082                       # number of SoftPFReq MSHR misses
system.cpu_cluster.cpus.dcache.SoftPFReq_mshr_misses::total       922082                       # number of SoftPFReq MSHR misses
system.cpu_cluster.cpus.dcache.StoreCondReq_accesses::.cpu_cluster.cpus.data      3962076                       # number of StoreCondReq accesses(hits+misses)
system.cpu_cluster.cpus.dcache.StoreCondReq_accesses::total      3962076                       # number of StoreCondReq accesses(hits+misses)
system.cpu_cluster.cpus.dcache.StoreCondReq_hits::.cpu_cluster.cpus.data      3962076                       # number of StoreCondReq hits
system.cpu_cluster.cpus.dcache.StoreCondReq_hits::total      3962076                       # number of StoreCondReq hits
system.cpu_cluster.cpus.dcache.WriteLineReq_accesses::.cpu_cluster.cpus.data      2875838                       # number of WriteLineReq accesses(hits+misses)
system.cpu_cluster.cpus.dcache.WriteLineReq_accesses::total      2875838                       # number of WriteLineReq accesses(hits+misses)
system.cpu_cluster.cpus.dcache.WriteLineReq_avg_miss_latency::.cpu_cluster.cpus.data 44452.714887                       # average WriteLineReq miss latency
system.cpu_cluster.cpus.dcache.WriteLineReq_avg_miss_latency::total 44452.714887                       # average WriteLineReq miss latency
system.cpu_cluster.cpus.dcache.WriteLineReq_avg_mshr_miss_latency::.cpu_cluster.cpus.data 14150.207473                       # average WriteLineReq mshr miss latency
system.cpu_cluster.cpus.dcache.WriteLineReq_avg_mshr_miss_latency::total 14150.207473                       # average WriteLineReq mshr miss latency
system.cpu_cluster.cpus.dcache.WriteLineReq_hits::.cpu_cluster.cpus.data       370006                       # number of WriteLineReq hits
system.cpu_cluster.cpus.dcache.WriteLineReq_hits::total       370006                       # number of WriteLineReq hits
system.cpu_cluster.cpus.dcache.WriteLineReq_miss_latency::.cpu_cluster.cpus.data 111391035451                       # number of WriteLineReq miss cycles
system.cpu_cluster.cpus.dcache.WriteLineReq_miss_latency::total 111391035451                       # number of WriteLineReq miss cycles
system.cpu_cluster.cpus.dcache.WriteLineReq_miss_rate::.cpu_cluster.cpus.data     0.871340                       # miss rate for WriteLineReq accesses
system.cpu_cluster.cpus.dcache.WriteLineReq_miss_rate::total     0.871340                       # miss rate for WriteLineReq accesses
system.cpu_cluster.cpus.dcache.WriteLineReq_misses::.cpu_cluster.cpus.data      2505832                       # number of WriteLineReq misses
system.cpu_cluster.cpus.dcache.WriteLineReq_misses::total      2505832                       # number of WriteLineReq misses
system.cpu_cluster.cpus.dcache.WriteLineReq_mshr_hits::.cpu_cluster.cpus.data      1530280                       # number of WriteLineReq MSHR hits
system.cpu_cluster.cpus.dcache.WriteLineReq_mshr_hits::total      1530280                       # number of WriteLineReq MSHR hits
system.cpu_cluster.cpus.dcache.WriteLineReq_mshr_miss_latency::.cpu_cluster.cpus.data  13804263201                       # number of WriteLineReq MSHR miss cycles
system.cpu_cluster.cpus.dcache.WriteLineReq_mshr_miss_latency::total  13804263201                       # number of WriteLineReq MSHR miss cycles
system.cpu_cluster.cpus.dcache.WriteLineReq_mshr_miss_rate::.cpu_cluster.cpus.data     0.339224                       # mshr miss rate for WriteLineReq accesses
system.cpu_cluster.cpus.dcache.WriteLineReq_mshr_miss_rate::total     0.339224                       # mshr miss rate for WriteLineReq accesses
system.cpu_cluster.cpus.dcache.WriteLineReq_mshr_misses::.cpu_cluster.cpus.data       975552                       # number of WriteLineReq MSHR misses
system.cpu_cluster.cpus.dcache.WriteLineReq_mshr_misses::total       975552                       # number of WriteLineReq MSHR misses
system.cpu_cluster.cpus.dcache.WriteReq_accesses::.cpu_cluster.cpus.data    137593438                       # number of WriteReq accesses(hits+misses)
system.cpu_cluster.cpus.dcache.WriteReq_accesses::total    137593438                       # number of WriteReq accesses(hits+misses)
system.cpu_cluster.cpus.dcache.WriteReq_avg_miss_latency::.cpu_cluster.cpus.data 38763.042991                       # average WriteReq miss latency
system.cpu_cluster.cpus.dcache.WriteReq_avg_miss_latency::total 38763.042991                       # average WriteReq miss latency
system.cpu_cluster.cpus.dcache.WriteReq_avg_mshr_miss_latency::.cpu_cluster.cpus.data 37140.992180                       # average WriteReq mshr miss latency
system.cpu_cluster.cpus.dcache.WriteReq_avg_mshr_miss_latency::total 37140.992180                       # average WriteReq mshr miss latency
system.cpu_cluster.cpus.dcache.WriteReq_hits::.cpu_cluster.cpus.data    134109608                       # number of WriteReq hits
system.cpu_cluster.cpus.dcache.WriteReq_hits::total    134109608                       # number of WriteReq hits
system.cpu_cluster.cpus.dcache.WriteReq_miss_latency::.cpu_cluster.cpus.data 135043852064                       # number of WriteReq miss cycles
system.cpu_cluster.cpus.dcache.WriteReq_miss_latency::total 135043852064                       # number of WriteReq miss cycles
system.cpu_cluster.cpus.dcache.WriteReq_miss_rate::.cpu_cluster.cpus.data     0.025320                       # miss rate for WriteReq accesses
system.cpu_cluster.cpus.dcache.WriteReq_miss_rate::total     0.025320                       # miss rate for WriteReq accesses
system.cpu_cluster.cpus.dcache.WriteReq_misses::.cpu_cluster.cpus.data      3483830                       # number of WriteReq misses
system.cpu_cluster.cpus.dcache.WriteReq_misses::total      3483830                       # number of WriteReq misses
system.cpu_cluster.cpus.dcache.WriteReq_mshr_hits::.cpu_cluster.cpus.data      1573963                       # number of WriteReq MSHR hits
system.cpu_cluster.cpus.dcache.WriteReq_mshr_hits::total      1573963                       # number of WriteReq MSHR hits
system.cpu_cluster.cpus.dcache.WriteReq_mshr_miss_latency::.cpu_cluster.cpus.data  70934355312                       # number of WriteReq MSHR miss cycles
system.cpu_cluster.cpus.dcache.WriteReq_mshr_miss_latency::total  70934355312                       # number of WriteReq MSHR miss cycles
system.cpu_cluster.cpus.dcache.WriteReq_mshr_miss_rate::.cpu_cluster.cpus.data     0.013881                       # mshr miss rate for WriteReq accesses
system.cpu_cluster.cpus.dcache.WriteReq_mshr_miss_rate::total     0.013881                       # mshr miss rate for WriteReq accesses
system.cpu_cluster.cpus.dcache.WriteReq_mshr_misses::.cpu_cluster.cpus.data      1909867                       # number of WriteReq MSHR misses
system.cpu_cluster.cpus.dcache.WriteReq_mshr_misses::total      1909867                       # number of WriteReq MSHR misses
system.cpu_cluster.cpus.dcache.WriteReq_mshr_uncacheable::.cpu_cluster.cpus.data        14893                       # number of WriteReq MSHR uncacheable
system.cpu_cluster.cpus.dcache.WriteReq_mshr_uncacheable::total        14893                       # number of WriteReq MSHR uncacheable
system.cpu_cluster.cpus.dcache.avg_blocked_cycles::no_mshrs    34.005740                       # average number of cycles each access was blocked
system.cpu_cluster.cpus.dcache.avg_blocked_cycles::no_targets          nan                       # average number of cycles each access was blocked
system.cpu_cluster.cpus.dcache.blocked::no_mshrs        42681                       # number of cycles access was blocked
system.cpu_cluster.cpus.dcache.blocked::no_targets            0                       # number of cycles access was blocked
system.cpu_cluster.cpus.dcache.blocked_cycles::no_mshrs      1451399                       # number of cycles access was blocked
system.cpu_cluster.cpus.dcache.blocked_cycles::no_targets            0                       # number of cycles access was blocked
system.cpu_cluster.cpus.dcache.demand_accesses::.cpu_cluster.cpus.data    301228653                       # number of demand (read+write) accesses
system.cpu_cluster.cpus.dcache.demand_accesses::total    301228653                       # number of demand (read+write) accesses
system.cpu_cluster.cpus.dcache.demand_avg_miss_latency::.cpu_cluster.cpus.data 31159.796357                       # average overall miss latency
system.cpu_cluster.cpus.dcache.demand_avg_miss_latency::total 31159.796357                       # average overall miss latency
system.cpu_cluster.cpus.dcache.demand_avg_mshr_miss_latency::.cpu_cluster.cpus.data 23394.187712                       # average overall mshr miss latency
system.cpu_cluster.cpus.dcache.demand_avg_mshr_miss_latency::total 23394.187712                       # average overall mshr miss latency
system.cpu_cluster.cpus.dcache.demand_hits::.cpu_cluster.cpus.data    289201187                       # number of demand (read+write) hits
system.cpu_cluster.cpus.dcache.demand_hits::total    289201187                       # number of demand (read+write) hits
system.cpu_cluster.cpus.dcache.demand_miss_latency::.cpu_cluster.cpus.data 374773391253                       # number of demand (read+write) miss cycles
system.cpu_cluster.cpus.dcache.demand_miss_latency::total 374773391253                       # number of demand (read+write) miss cycles
system.cpu_cluster.cpus.dcache.demand_miss_rate::.cpu_cluster.cpus.data     0.039928                       # miss rate for demand accesses
system.cpu_cluster.cpus.dcache.demand_miss_rate::total     0.039928                       # miss rate for demand accesses
system.cpu_cluster.cpus.dcache.demand_misses::.cpu_cluster.cpus.data     12027466                       # number of demand (read+write) misses
system.cpu_cluster.cpus.dcache.demand_misses::total     12027466                       # number of demand (read+write) misses
system.cpu_cluster.cpus.dcache.demand_mshr_hits::.cpu_cluster.cpus.data      4034772                       # number of demand (read+write) MSHR hits
system.cpu_cluster.cpus.dcache.demand_mshr_hits::total      4034772                       # number of demand (read+write) MSHR hits
system.cpu_cluster.cpus.dcache.demand_mshr_miss_latency::.cpu_cluster.cpus.data 186982583763                       # number of demand (read+write) MSHR miss cycles
system.cpu_cluster.cpus.dcache.demand_mshr_miss_latency::total 186982583763                       # number of demand (read+write) MSHR miss cycles
system.cpu_cluster.cpus.dcache.demand_mshr_miss_rate::.cpu_cluster.cpus.data     0.026534                       # mshr miss rate for demand accesses
system.cpu_cluster.cpus.dcache.demand_mshr_miss_rate::total     0.026534                       # mshr miss rate for demand accesses
system.cpu_cluster.cpus.dcache.demand_mshr_misses::.cpu_cluster.cpus.data      7992694                       # number of demand (read+write) MSHR misses
system.cpu_cluster.cpus.dcache.demand_mshr_misses::total      7992694                       # number of demand (read+write) MSHR misses
system.cpu_cluster.cpus.dcache.overall_accesses::.cpu_cluster.cpus.data    306619298                       # number of overall (read+write) accesses
system.cpu_cluster.cpus.dcache.overall_accesses::total    306619298                       # number of overall (read+write) accesses
system.cpu_cluster.cpus.dcache.overall_avg_miss_latency::.cpu_cluster.cpus.data 27555.647261                       # average overall miss latency
system.cpu_cluster.cpus.dcache.overall_avg_miss_latency::total 27555.647261                       # average overall miss latency
system.cpu_cluster.cpus.dcache.overall_avg_mshr_miss_latency::.cpu_cluster.cpus.data 25852.941523                       # average overall mshr miss latency
system.cpu_cluster.cpus.dcache.overall_avg_mshr_miss_latency::.cpu_cluster.cpus.dcache.prefetcher 57604.378305                       # average overall mshr miss latency
system.cpu_cluster.cpus.dcache.overall_avg_mshr_miss_latency::total 33394.193324                       # average overall mshr miss latency
system.cpu_cluster.cpus.dcache.overall_avg_mshr_uncacheable_latency::.cpu_cluster.cpus.data 89976.515868                       # average overall mshr uncacheable latency
system.cpu_cluster.cpus.dcache.overall_avg_mshr_uncacheable_latency::total 89976.515868                       # average overall mshr uncacheable latency
system.cpu_cluster.cpus.dcache.overall_hits::.cpu_cluster.cpus.data    293018696                       # number of overall hits
system.cpu_cluster.cpus.dcache.overall_hits::total    293018696                       # number of overall hits
system.cpu_cluster.cpus.dcache.overall_miss_latency::.cpu_cluster.cpus.data 374773391253                       # number of overall miss cycles
system.cpu_cluster.cpus.dcache.overall_miss_latency::total 374773391253                       # number of overall miss cycles
system.cpu_cluster.cpus.dcache.overall_miss_rate::.cpu_cluster.cpus.data     0.044357                       # miss rate for overall accesses
system.cpu_cluster.cpus.dcache.overall_miss_rate::total     0.044357                       # miss rate for overall accesses
system.cpu_cluster.cpus.dcache.overall_misses::.cpu_cluster.cpus.data     13600602                       # number of overall misses
system.cpu_cluster.cpus.dcache.overall_misses::total     13600602                       # number of overall misses
system.cpu_cluster.cpus.dcache.overall_mshr_hits::.cpu_cluster.cpus.data      4034772                       # number of overall MSHR hits
system.cpu_cluster.cpus.dcache.overall_mshr_hits::total      4034772                       # number of overall MSHR hits
system.cpu_cluster.cpus.dcache.overall_mshr_miss_latency::.cpu_cluster.cpus.data 239921243513                       # number of overall MSHR miss cycles
system.cpu_cluster.cpus.dcache.overall_mshr_miss_latency::.cpu_cluster.cpus.dcache.prefetcher 166517379596                       # number of overall MSHR miss cycles
system.cpu_cluster.cpus.dcache.overall_mshr_miss_latency::total 406438623109                       # number of overall MSHR miss cycles
system.cpu_cluster.cpus.dcache.overall_mshr_miss_rate::.cpu_cluster.cpus.data     0.030266                       # mshr miss rate for overall accesses
system.cpu_cluster.cpus.dcache.overall_mshr_miss_rate::.cpu_cluster.cpus.dcache.prefetcher          inf                       # mshr miss rate for overall accesses
system.cpu_cluster.cpus.dcache.overall_mshr_miss_rate::total     0.039694                       # mshr miss rate for overall accesses
system.cpu_cluster.cpus.dcache.overall_mshr_misses::.cpu_cluster.cpus.data      9280230                       # number of overall MSHR misses
system.cpu_cluster.cpus.dcache.overall_mshr_misses::.cpu_cluster.cpus.dcache.prefetcher      2890707                       # number of overall MSHR misses
system.cpu_cluster.cpus.dcache.overall_mshr_misses::total     12170937                       # number of overall MSHR misses
system.cpu_cluster.cpus.dcache.overall_mshr_uncacheable_latency::.cpu_cluster.cpus.data   2472194750                       # number of overall MSHR uncacheable cycles
system.cpu_cluster.cpus.dcache.overall_mshr_uncacheable_latency::total   2472194750                       # number of overall MSHR uncacheable cycles
system.cpu_cluster.cpus.dcache.overall_mshr_uncacheable_misses::.cpu_cluster.cpus.data        27476                       # number of overall MSHR uncacheable misses
system.cpu_cluster.cpus.dcache.overall_mshr_uncacheable_misses::total        27476                       # number of overall MSHR uncacheable misses
system.cpu_cluster.cpus.dcache.prefetcher.num_hwpf_issued      3230349                       # number of hwpf issued
system.cpu_cluster.cpus.dcache.prefetcher.pfBufferHit      4124741                       # number of redundant prefetches already in prefetch queue
system.cpu_cluster.cpus.dcache.prefetcher.pfIdentified     12097687                       # number of prefetch candidates identified
system.cpu_cluster.cpus.dcache.prefetcher.pfInCache            0                       # number of redundant prefetches already in cache/mshr dropped
system.cpu_cluster.cpus.dcache.prefetcher.pfRemovedFull       869402                       # number of prefetches dropped due to prefetch queue size
system.cpu_cluster.cpus.dcache.prefetcher.pfSpanPage       604713                       # number of prefetches that crossed the page
system.cpu_cluster.cpus.dcache.prefetcher.pwrStateResidencyTicks::UNDEFINED 3718824543000                       # Cumulative time (in ticks) in various power states
system.cpu_cluster.cpus.dcache.pwrStateResidencyTicks::UNDEFINED 3718824543000                       # Cumulative time (in ticks) in various power states
system.cpu_cluster.cpus.dcache.replacements     11206696                       # number of replacements
system.cpu_cluster.cpus.dcache.tags.age_task_id_blocks_1022::1          108                       # Occupied blocks per task id
system.cpu_cluster.cpus.dcache.tags.age_task_id_blocks_1022::2            1                       # Occupied blocks per task id
system.cpu_cluster.cpus.dcache.tags.age_task_id_blocks_1024::0           75                       # Occupied blocks per task id
system.cpu_cluster.cpus.dcache.tags.age_task_id_blocks_1024::1          276                       # Occupied blocks per task id
system.cpu_cluster.cpus.dcache.tags.age_task_id_blocks_1024::2           51                       # Occupied blocks per task id
system.cpu_cluster.cpus.dcache.tags.age_task_id_blocks_1024::3            1                       # Occupied blocks per task id
system.cpu_cluster.cpus.dcache.tags.avg_refs    25.922252                       # Average number of references to valid blocks.
system.cpu_cluster.cpus.dcache.tags.data_accesses   1274240459                       # Number of data accesses
system.cpu_cluster.cpus.dcache.tags.occ_blocks::.cpu_cluster.cpus.data   473.741153                       # Average occupied blocks per requestor
system.cpu_cluster.cpus.dcache.tags.occ_blocks::.cpu_cluster.cpus.dcache.prefetcher    36.724057                       # Average occupied blocks per requestor
system.cpu_cluster.cpus.dcache.tags.occ_percent::.cpu_cluster.cpus.data     0.925276                       # Average percentage of cache occupancy
system.cpu_cluster.cpus.dcache.tags.occ_percent::.cpu_cluster.cpus.dcache.prefetcher     0.071727                       # Average percentage of cache occupancy
system.cpu_cluster.cpus.dcache.tags.occ_percent::total     0.997002                       # Average percentage of cache occupancy
system.cpu_cluster.cpus.dcache.tags.occ_task_id_blocks::1022          109                       # Occupied blocks per task id
system.cpu_cluster.cpus.dcache.tags.occ_task_id_blocks::1024          403                       # Occupied blocks per task id
system.cpu_cluster.cpus.dcache.tags.occ_task_id_percent::1022     0.212891                       # Percentage of cache occupancy per task id
system.cpu_cluster.cpus.dcache.tags.occ_task_id_percent::1024     0.787109                       # Percentage of cache occupancy per task id
system.cpu_cluster.cpus.dcache.tags.pwrStateResidencyTicks::UNDEFINED 3718824543000                       # Cumulative time (in ticks) in various power states
system.cpu_cluster.cpus.dcache.tags.sampled_refs     12110811                       # Sample count of references to valid blocks.
system.cpu_cluster.cpus.dcache.tags.tag_accesses   1274240459                       # Number of tag accesses
system.cpu_cluster.cpus.dcache.tags.tagsinuse   510.465211                       # Cycle average of tags in use
system.cpu_cluster.cpus.dcache.tags.total_refs    313939490                       # Total number of references to valid blocks.
system.cpu_cluster.cpus.dcache.tags.warmup_cycle    159554500                       # Cycle when the warmup percentage was hit.
system.cpu_cluster.cpus.dcache.unused_prefetches      1568527                       # number of HardPF blocks evicted w/o reference
system.cpu_cluster.cpus.dcache.writebacks::.writebacks      8002748                       # number of writebacks
system.cpu_cluster.cpus.dcache.writebacks::total      8002748                       # number of writebacks
system.cpu_cluster.cpus.discardedOps         91488113                       # Number of ops (including micro ops) which were discarded before commit
system.cpu_cluster.cpus.dstage2_mmu.stage2_tlb.accesses            0                       # DTB accesses
system.cpu_cluster.cpus.dstage2_mmu.stage2_tlb.align_faults            0                       # Number of TLB faults due to alignment restrictions
system.cpu_cluster.cpus.dstage2_mmu.stage2_tlb.domain_faults            0                       # Number of TLB faults due to domain restrictions
system.cpu_cluster.cpus.dstage2_mmu.stage2_tlb.flush_entries            0                       # Number of entries that have been flushed from TLB
system.cpu_cluster.cpus.dstage2_mmu.stage2_tlb.flush_tlb            0                       # Number of times complete TLB was flushed
system.cpu_cluster.cpus.dstage2_mmu.stage2_tlb.flush_tlb_asid            0                       # Number of times TLB was flushed by ASID
system.cpu_cluster.cpus.dstage2_mmu.stage2_tlb.flush_tlb_mva            0                       # Number of times TLB was flushed by MVA
system.cpu_cluster.cpus.dstage2_mmu.stage2_tlb.flush_tlb_mva_asid            0                       # Number of times TLB was flushed by MVA & ASID
system.cpu_cluster.cpus.dstage2_mmu.stage2_tlb.hits            0                       # DTB hits
system.cpu_cluster.cpus.dstage2_mmu.stage2_tlb.inst_accesses            0                       # ITB inst accesses
system.cpu_cluster.cpus.dstage2_mmu.stage2_tlb.inst_hits            0                       # ITB inst hits
system.cpu_cluster.cpus.dstage2_mmu.stage2_tlb.inst_misses            0                       # ITB inst misses
system.cpu_cluster.cpus.dstage2_mmu.stage2_tlb.misses            0                       # DTB misses
system.cpu_cluster.cpus.dstage2_mmu.stage2_tlb.perms_faults            0                       # Number of TLB faults due to permissions restrictions
system.cpu_cluster.cpus.dstage2_mmu.stage2_tlb.prefetch_faults            0                       # Number of TLB faults due to prefetch
system.cpu_cluster.cpus.dstage2_mmu.stage2_tlb.read_accesses            0                       # DTB read accesses
system.cpu_cluster.cpus.dstage2_mmu.stage2_tlb.read_hits            0                       # DTB read hits
system.cpu_cluster.cpus.dstage2_mmu.stage2_tlb.read_misses            0                       # DTB read misses
system.cpu_cluster.cpus.dstage2_mmu.stage2_tlb.walker.pwrStateResidencyTicks::UNDEFINED 3718824543000                       # Cumulative time (in ticks) in various power states
system.cpu_cluster.cpus.dstage2_mmu.stage2_tlb.walker.walkRequestOrigin_Requested::Data            0                       # Table walker requests started/completed, data/inst
system.cpu_cluster.cpus.dstage2_mmu.stage2_tlb.walker.walkRequestOrigin_Requested::Inst            0                       # Table walker requests started/completed, data/inst
system.cpu_cluster.cpus.dstage2_mmu.stage2_tlb.walker.walkRequestOrigin_Requested::total            0                       # Table walker requests started/completed, data/inst
system.cpu_cluster.cpus.dstage2_mmu.stage2_tlb.walker.walkRequestOrigin_Completed::Data            0                       # Table walker requests started/completed, data/inst
system.cpu_cluster.cpus.dstage2_mmu.stage2_tlb.walker.walkRequestOrigin_Completed::Inst            0                       # Table walker requests started/completed, data/inst
system.cpu_cluster.cpus.dstage2_mmu.stage2_tlb.walker.walkRequestOrigin_Completed::total            0                       # Table walker requests started/completed, data/inst
system.cpu_cluster.cpus.dstage2_mmu.stage2_tlb.walker.walkRequestOrigin::total            0                       # Table walker requests started/completed, data/inst
system.cpu_cluster.cpus.dstage2_mmu.stage2_tlb.walker.walks            0                       # Table walker walks requested
system.cpu_cluster.cpus.dstage2_mmu.stage2_tlb.write_accesses            0                       # DTB write accesses
system.cpu_cluster.cpus.dstage2_mmu.stage2_tlb.write_hits            0                       # DTB write hits
system.cpu_cluster.cpus.dstage2_mmu.stage2_tlb.write_misses            0                       # DTB write misses
system.cpu_cluster.cpus.dtb.accesses        319792578                       # DTB accesses
system.cpu_cluster.cpus.dtb.align_faults          337                       # Number of TLB faults due to alignment restrictions
system.cpu_cluster.cpus.dtb.domain_faults            0                       # Number of TLB faults due to domain restrictions
system.cpu_cluster.cpus.dtb.flush_entries        45862                       # Number of entries that have been flushed from TLB
system.cpu_cluster.cpus.dtb.flush_tlb               7                       # Number of times complete TLB was flushed
system.cpu_cluster.cpus.dtb.flush_tlb_asid          360                       # Number of times TLB was flushed by ASID
system.cpu_cluster.cpus.dtb.flush_tlb_mva            6                       # Number of times TLB was flushed by MVA
system.cpu_cluster.cpus.dtb.flush_tlb_mva_asid        42318                       # Number of times TLB was flushed by MVA & ASID
system.cpu_cluster.cpus.dtb.hits            318777600                       # DTB hits
system.cpu_cluster.cpus.dtb.inst_accesses            0                       # ITB inst accesses
system.cpu_cluster.cpus.dtb.inst_hits               0                       # ITB inst hits
system.cpu_cluster.cpus.dtb.inst_misses             0                       # ITB inst misses
system.cpu_cluster.cpus.dtb.misses            1014978                       # DTB misses
system.cpu_cluster.cpus.dtb.perms_faults        87756                       # Number of TLB faults due to permissions restrictions
system.cpu_cluster.cpus.dtb.prefetch_faults        19430                       # Number of TLB faults due to prefetch
system.cpu_cluster.cpus.dtb.read_accesses    172631121                       # DTB read accesses
system.cpu_cluster.cpus.dtb.read_hits       171775260                       # DTB read hits
system.cpu_cluster.cpus.dtb.read_misses        855861                       # DTB read misses
system.cpu_cluster.cpus.dtb.walker.pwrStateResidencyTicks::UNDEFINED 3718824543000                       # Cumulative time (in ticks) in various power states
system.cpu_cluster.cpus.dtb.walker.walkCompletionTime::samples       105360                       # Table walker service (enqueue to completion) latency
system.cpu_cluster.cpus.dtb.walker.walkCompletionTime::mean 11197.280752                       # Table walker service (enqueue to completion) latency
system.cpu_cluster.cpus.dtb.walker.walkCompletionTime::gmean  6323.584729                       # Table walker service (enqueue to completion) latency
system.cpu_cluster.cpus.dtb.walker.walkCompletionTime::stdev 24786.827421                       # Table walker service (enqueue to completion) latency
system.cpu_cluster.cpus.dtb.walker.walkCompletionTime::0-65535       100808     95.68%     95.68% # Table walker service (enqueue to completion) latency
system.cpu_cluster.cpus.dtb.walker.walkCompletionTime::65536-131071         3691      3.50%     99.18% # Table walker service (enqueue to completion) latency
system.cpu_cluster.cpus.dtb.walker.walkCompletionTime::131072-196607          459      0.44%     99.62% # Table walker service (enqueue to completion) latency
system.cpu_cluster.cpus.dtb.walker.walkCompletionTime::196608-262143          293      0.28%     99.90% # Table walker service (enqueue to completion) latency
system.cpu_cluster.cpus.dtb.walker.walkCompletionTime::262144-327679           67      0.06%     99.96% # Table walker service (enqueue to completion) latency
system.cpu_cluster.cpus.dtb.walker.walkCompletionTime::327680-393215           25      0.02%     99.98% # Table walker service (enqueue to completion) latency
system.cpu_cluster.cpus.dtb.walker.walkCompletionTime::393216-458751            9      0.01%     99.99% # Table walker service (enqueue to completion) latency
system.cpu_cluster.cpus.dtb.walker.walkCompletionTime::458752-524287            4      0.00%    100.00% # Table walker service (enqueue to completion) latency
system.cpu_cluster.cpus.dtb.walker.walkCompletionTime::524288-589823            3      0.00%    100.00% # Table walker service (enqueue to completion) latency
system.cpu_cluster.cpus.dtb.walker.walkCompletionTime::589824-655359            1      0.00%    100.00% # Table walker service (enqueue to completion) latency
system.cpu_cluster.cpus.dtb.walker.walkCompletionTime::total       105360                       # Table walker service (enqueue to completion) latency
system.cpu_cluster.cpus.dtb.walker.walkPageSizes::4K       104358     99.05%     99.05% # Table walker page sizes translated
system.cpu_cluster.cpus.dtb.walker.walkPageSizes::2M          981      0.93%     99.98% # Table walker page sizes translated
system.cpu_cluster.cpus.dtb.walker.walkPageSizes::1G           21      0.02%    100.00% # Table walker page sizes translated
system.cpu_cluster.cpus.dtb.walker.walkPageSizes::total       105360                       # Table walker page sizes translated
system.cpu_cluster.cpus.dtb.walker.walkRequestOrigin_Requested::Data      1014978                       # Table walker requests started/completed, data/inst
system.cpu_cluster.cpus.dtb.walker.walkRequestOrigin_Requested::Inst            0                       # Table walker requests started/completed, data/inst
system.cpu_cluster.cpus.dtb.walker.walkRequestOrigin_Requested::total      1014978                       # Table walker requests started/completed, data/inst
system.cpu_cluster.cpus.dtb.walker.walkRequestOrigin_Completed::Data       105360                       # Table walker requests started/completed, data/inst
system.cpu_cluster.cpus.dtb.walker.walkRequestOrigin_Completed::Inst            0                       # Table walker requests started/completed, data/inst
system.cpu_cluster.cpus.dtb.walker.walkRequestOrigin_Completed::total       105360                       # Table walker requests started/completed, data/inst
system.cpu_cluster.cpus.dtb.walker.walkRequestOrigin::total      1120338                       # Table walker requests started/completed, data/inst
system.cpu_cluster.cpus.dtb.walker.walkWaitTime::samples      1014978                       # Table walker wait (enqueue to first request) latency
system.cpu_cluster.cpus.dtb.walker.walkWaitTime::0      1014978    100.00%    100.00% # Table walker wait (enqueue to first request) latency
system.cpu_cluster.cpus.dtb.walker.walkWaitTime::total      1014978                       # Table walker wait (enqueue to first request) latency
system.cpu_cluster.cpus.dtb.walker.walks      1014978                       # Table walker walks requested
system.cpu_cluster.cpus.dtb.walker.walksLong      1014978                       # Table walker walks initiated with long descriptors
system.cpu_cluster.cpus.dtb.walker.walksLongTerminationLevel::Level1           21                       # Level at which table walker walks with long descriptors terminate
system.cpu_cluster.cpus.dtb.walker.walksLongTerminationLevel::Level2          981                       # Level at which table walker walks with long descriptors terminate
system.cpu_cluster.cpus.dtb.walker.walksLongTerminationLevel::Level3       104358                       # Level at which table walker walks with long descriptors terminate
system.cpu_cluster.cpus.dtb.walker.walksPending::samples    159457000                       # Table walker pending requests distribution
system.cpu_cluster.cpus.dtb.walker.walksPending::0    159457000    100.00%    100.00% # Table walker pending requests distribution
system.cpu_cluster.cpus.dtb.walker.walksPending::total    159457000                       # Table walker pending requests distribution
system.cpu_cluster.cpus.dtb.write_accesses    147161457                       # DTB write accesses
system.cpu_cluster.cpus.dtb.write_hits      147002340                       # DTB write hits
system.cpu_cluster.cpus.dtb.write_misses       159117                       # DTB write misses
system.cpu_cluster.cpus.dtb_walker_cache.ReadReq_accesses::.cpu_cluster.cpus.dtb.walker      1971378                       # number of ReadReq accesses(hits+misses)
system.cpu_cluster.cpus.dtb_walker_cache.ReadReq_accesses::total      1971378                       # number of ReadReq accesses(hits+misses)
system.cpu_cluster.cpus.dtb_walker_cache.ReadReq_avg_miss_latency::.cpu_cluster.cpus.dtb.walker 13508.053024                       # average ReadReq miss latency
system.cpu_cluster.cpus.dtb_walker_cache.ReadReq_avg_miss_latency::total 13508.053024                       # average ReadReq miss latency
system.cpu_cluster.cpus.dtb_walker_cache.ReadReq_avg_mshr_miss_latency::.cpu_cluster.cpus.dtb.walker 12508.053024                       # average ReadReq mshr miss latency
system.cpu_cluster.cpus.dtb_walker_cache.ReadReq_avg_mshr_miss_latency::total 12508.053024                       # average ReadReq mshr miss latency
system.cpu_cluster.cpus.dtb_walker_cache.ReadReq_hits::.cpu_cluster.cpus.dtb.walker      1857694                       # number of ReadReq hits
system.cpu_cluster.cpus.dtb_walker_cache.ReadReq_hits::total      1857694                       # number of ReadReq hits
system.cpu_cluster.cpus.dtb_walker_cache.ReadReq_miss_latency::.cpu_cluster.cpus.dtb.walker   1535649500                       # number of ReadReq miss cycles
system.cpu_cluster.cpus.dtb_walker_cache.ReadReq_miss_latency::total   1535649500                       # number of ReadReq miss cycles
system.cpu_cluster.cpus.dtb_walker_cache.ReadReq_miss_rate::.cpu_cluster.cpus.dtb.walker     0.057667                       # miss rate for ReadReq accesses
system.cpu_cluster.cpus.dtb_walker_cache.ReadReq_miss_rate::total     0.057667                       # miss rate for ReadReq accesses
system.cpu_cluster.cpus.dtb_walker_cache.ReadReq_misses::.cpu_cluster.cpus.dtb.walker       113684                       # number of ReadReq misses
system.cpu_cluster.cpus.dtb_walker_cache.ReadReq_misses::total       113684                       # number of ReadReq misses
system.cpu_cluster.cpus.dtb_walker_cache.ReadReq_mshr_miss_latency::.cpu_cluster.cpus.dtb.walker   1421965500                       # number of ReadReq MSHR miss cycles
system.cpu_cluster.cpus.dtb_walker_cache.ReadReq_mshr_miss_latency::total   1421965500                       # number of ReadReq MSHR miss cycles
system.cpu_cluster.cpus.dtb_walker_cache.ReadReq_mshr_miss_rate::.cpu_cluster.cpus.dtb.walker     0.057667                       # mshr miss rate for ReadReq accesses
system.cpu_cluster.cpus.dtb_walker_cache.ReadReq_mshr_miss_rate::total     0.057667                       # mshr miss rate for ReadReq accesses
system.cpu_cluster.cpus.dtb_walker_cache.ReadReq_mshr_misses::.cpu_cluster.cpus.dtb.walker       113684                       # number of ReadReq MSHR misses
system.cpu_cluster.cpus.dtb_walker_cache.ReadReq_mshr_misses::total       113684                       # number of ReadReq MSHR misses
system.cpu_cluster.cpus.dtb_walker_cache.avg_blocked_cycles::no_mshrs          nan                       # average number of cycles each access was blocked
system.cpu_cluster.cpus.dtb_walker_cache.avg_blocked_cycles::no_targets          nan                       # average number of cycles each access was blocked
system.cpu_cluster.cpus.dtb_walker_cache.blocked::no_mshrs            0                       # number of cycles access was blocked
system.cpu_cluster.cpus.dtb_walker_cache.blocked::no_targets            0                       # number of cycles access was blocked
system.cpu_cluster.cpus.dtb_walker_cache.blocked_cycles::no_mshrs            0                       # number of cycles access was blocked
system.cpu_cluster.cpus.dtb_walker_cache.blocked_cycles::no_targets            0                       # number of cycles access was blocked
system.cpu_cluster.cpus.dtb_walker_cache.demand_accesses::.cpu_cluster.cpus.dtb.walker      1971378                       # number of demand (read+write) accesses
system.cpu_cluster.cpus.dtb_walker_cache.demand_accesses::total      1971378                       # number of demand (read+write) accesses
system.cpu_cluster.cpus.dtb_walker_cache.demand_avg_miss_latency::.cpu_cluster.cpus.dtb.walker 13508.053024                       # average overall miss latency
system.cpu_cluster.cpus.dtb_walker_cache.demand_avg_miss_latency::total 13508.053024                       # average overall miss latency
system.cpu_cluster.cpus.dtb_walker_cache.demand_avg_mshr_miss_latency::.cpu_cluster.cpus.dtb.walker 12508.053024                       # average overall mshr miss latency
system.cpu_cluster.cpus.dtb_walker_cache.demand_avg_mshr_miss_latency::total 12508.053024                       # average overall mshr miss latency
system.cpu_cluster.cpus.dtb_walker_cache.demand_hits::.cpu_cluster.cpus.dtb.walker      1857694                       # number of demand (read+write) hits
system.cpu_cluster.cpus.dtb_walker_cache.demand_hits::total      1857694                       # number of demand (read+write) hits
system.cpu_cluster.cpus.dtb_walker_cache.demand_miss_latency::.cpu_cluster.cpus.dtb.walker   1535649500                       # number of demand (read+write) miss cycles
system.cpu_cluster.cpus.dtb_walker_cache.demand_miss_latency::total   1535649500                       # number of demand (read+write) miss cycles
system.cpu_cluster.cpus.dtb_walker_cache.demand_miss_rate::.cpu_cluster.cpus.dtb.walker     0.057667                       # miss rate for demand accesses
system.cpu_cluster.cpus.dtb_walker_cache.demand_miss_rate::total     0.057667                       # miss rate for demand accesses
system.cpu_cluster.cpus.dtb_walker_cache.demand_misses::.cpu_cluster.cpus.dtb.walker       113684                       # number of demand (read+write) misses
system.cpu_cluster.cpus.dtb_walker_cache.demand_misses::total       113684                       # number of demand (read+write) misses
system.cpu_cluster.cpus.dtb_walker_cache.demand_mshr_miss_latency::.cpu_cluster.cpus.dtb.walker   1421965500                       # number of demand (read+write) MSHR miss cycles
system.cpu_cluster.cpus.dtb_walker_cache.demand_mshr_miss_latency::total   1421965500                       # number of demand (read+write) MSHR miss cycles
system.cpu_cluster.cpus.dtb_walker_cache.demand_mshr_miss_rate::.cpu_cluster.cpus.dtb.walker     0.057667                       # mshr miss rate for demand accesses
system.cpu_cluster.cpus.dtb_walker_cache.demand_mshr_miss_rate::total     0.057667                       # mshr miss rate for demand accesses
system.cpu_cluster.cpus.dtb_walker_cache.demand_mshr_misses::.cpu_cluster.cpus.dtb.walker       113684                       # number of demand (read+write) MSHR misses
system.cpu_cluster.cpus.dtb_walker_cache.demand_mshr_misses::total       113684                       # number of demand (read+write) MSHR misses
system.cpu_cluster.cpus.dtb_walker_cache.overall_accesses::.cpu_cluster.cpus.dtb.walker      1971378                       # number of overall (read+write) accesses
system.cpu_cluster.cpus.dtb_walker_cache.overall_accesses::total      1971378                       # number of overall (read+write) accesses
system.cpu_cluster.cpus.dtb_walker_cache.overall_avg_miss_latency::.cpu_cluster.cpus.dtb.walker 13508.053024                       # average overall miss latency
system.cpu_cluster.cpus.dtb_walker_cache.overall_avg_miss_latency::total 13508.053024                       # average overall miss latency
system.cpu_cluster.cpus.dtb_walker_cache.overall_avg_mshr_miss_latency::.cpu_cluster.cpus.dtb.walker 12508.053024                       # average overall mshr miss latency
system.cpu_cluster.cpus.dtb_walker_cache.overall_avg_mshr_miss_latency::total 12508.053024                       # average overall mshr miss latency
system.cpu_cluster.cpus.dtb_walker_cache.overall_hits::.cpu_cluster.cpus.dtb.walker      1857694                       # number of overall hits
system.cpu_cluster.cpus.dtb_walker_cache.overall_hits::total      1857694                       # number of overall hits
system.cpu_cluster.cpus.dtb_walker_cache.overall_miss_latency::.cpu_cluster.cpus.dtb.walker   1535649500                       # number of overall miss cycles
system.cpu_cluster.cpus.dtb_walker_cache.overall_miss_latency::total   1535649500                       # number of overall miss cycles
system.cpu_cluster.cpus.dtb_walker_cache.overall_miss_rate::.cpu_cluster.cpus.dtb.walker     0.057667                       # miss rate for overall accesses
system.cpu_cluster.cpus.dtb_walker_cache.overall_miss_rate::total     0.057667                       # miss rate for overall accesses
system.cpu_cluster.cpus.dtb_walker_cache.overall_misses::.cpu_cluster.cpus.dtb.walker       113684                       # number of overall misses
system.cpu_cluster.cpus.dtb_walker_cache.overall_misses::total       113684                       # number of overall misses
system.cpu_cluster.cpus.dtb_walker_cache.overall_mshr_miss_latency::.cpu_cluster.cpus.dtb.walker   1421965500                       # number of overall MSHR miss cycles
system.cpu_cluster.cpus.dtb_walker_cache.overall_mshr_miss_latency::total   1421965500                       # number of overall MSHR miss cycles
system.cpu_cluster.cpus.dtb_walker_cache.overall_mshr_miss_rate::.cpu_cluster.cpus.dtb.walker     0.057667                       # mshr miss rate for overall accesses
system.cpu_cluster.cpus.dtb_walker_cache.overall_mshr_miss_rate::total     0.057667                       # mshr miss rate for overall accesses
system.cpu_cluster.cpus.dtb_walker_cache.overall_mshr_misses::.cpu_cluster.cpus.dtb.walker       113684                       # number of overall MSHR misses
system.cpu_cluster.cpus.dtb_walker_cache.overall_mshr_misses::total       113684                       # number of overall MSHR misses
system.cpu_cluster.cpus.dtb_walker_cache.pwrStateResidencyTicks::UNDEFINED 3718824543000                       # Cumulative time (in ticks) in various power states
system.cpu_cluster.cpus.dtb_walker_cache.replacements        52614                       # number of replacements
system.cpu_cluster.cpus.dtb_walker_cache.tags.age_task_id_blocks_1023::0            1                       # Occupied blocks per task id
system.cpu_cluster.cpus.dtb_walker_cache.tags.age_task_id_blocks_1023::1           11                       # Occupied blocks per task id
system.cpu_cluster.cpus.dtb_walker_cache.tags.age_task_id_blocks_1023::2            4                       # Occupied blocks per task id
system.cpu_cluster.cpus.dtb_walker_cache.tags.avg_refs    17.340857                       # Average number of references to valid blocks.
system.cpu_cluster.cpus.dtb_walker_cache.tags.data_accesses     15884708                       # Number of data accesses
system.cpu_cluster.cpus.dtb_walker_cache.tags.occ_blocks::.cpu_cluster.cpus.dtb.walker    15.599335                       # Average occupied blocks per requestor
system.cpu_cluster.cpus.dtb_walker_cache.tags.occ_percent::.cpu_cluster.cpus.dtb.walker     0.974958                       # Average percentage of cache occupancy
system.cpu_cluster.cpus.dtb_walker_cache.tags.occ_percent::total     0.974958                       # Average percentage of cache occupancy
system.cpu_cluster.cpus.dtb_walker_cache.tags.occ_task_id_blocks::1023           16                       # Occupied blocks per task id
system.cpu_cluster.cpus.dtb_walker_cache.tags.occ_task_id_percent::1023            1                       # Percentage of cache occupancy per task id
system.cpu_cluster.cpus.dtb_walker_cache.tags.pwrStateResidencyTicks::UNDEFINED 3718824543000                       # Cumulative time (in ticks) in various power states
system.cpu_cluster.cpus.dtb_walker_cache.tags.sampled_refs       113684                       # Sample count of references to valid blocks.
system.cpu_cluster.cpus.dtb_walker_cache.tags.tag_accesses     15884708                       # Number of tag accesses
system.cpu_cluster.cpus.dtb_walker_cache.tags.tagsinuse    15.599335                       # Cycle average of tags in use
system.cpu_cluster.cpus.dtb_walker_cache.tags.total_refs      1971378                       # Total number of references to valid blocks.
system.cpu_cluster.cpus.dtb_walker_cache.tags.warmup_cycle    159462750                       # Cycle when the warmup percentage was hit.
system.cpu_cluster.cpus.dtb_walker_cache.writebacks::.writebacks         8304                       # number of writebacks
system.cpu_cluster.cpus.dtb_walker_cache.writebacks::total         8304                       # number of writebacks
system.cpu_cluster.cpus.fetch2.amo_instructions            0                       # Number of memory atomic instructions successfully decoded
system.cpu_cluster.cpus.fetch2.fp_instructions            0                       # Number of floating point instructions successfully decoded
system.cpu_cluster.cpus.fetch2.int_instructions    672754830                       # Number of integer instructions successfully decoded
system.cpu_cluster.cpus.fetch2.load_instructions    169263691                       # Number of memory load instructions successfully decoded
system.cpu_cluster.cpus.fetch2.store_instructions     82898249                       # Number of memory store instructions successfully decoded
system.cpu_cluster.cpus.fetch2.vec_instructions       199756                       # Number of SIMD instructions successfully decoded
system.cpu_cluster.cpus.icache.ReadReq_accesses::.cpu_cluster.cpus.inst    403900159                       # number of ReadReq accesses(hits+misses)
system.cpu_cluster.cpus.icache.ReadReq_accesses::total    403900159                       # number of ReadReq accesses(hits+misses)
system.cpu_cluster.cpus.icache.ReadReq_avg_miss_latency::.cpu_cluster.cpus.inst  7511.778917                       # average ReadReq miss latency
system.cpu_cluster.cpus.icache.ReadReq_avg_miss_latency::total  7511.778917                       # average ReadReq miss latency
system.cpu_cluster.cpus.icache.ReadReq_avg_mshr_miss_latency::.cpu_cluster.cpus.inst  7261.778931                       # average ReadReq mshr miss latency
system.cpu_cluster.cpus.icache.ReadReq_avg_mshr_miss_latency::total  7261.778931                       # average ReadReq mshr miss latency
system.cpu_cluster.cpus.icache.ReadReq_avg_mshr_uncacheable_latency::.cpu_cluster.cpus.inst 62916.738475                       # average ReadReq mshr uncacheable latency
system.cpu_cluster.cpus.icache.ReadReq_avg_mshr_uncacheable_latency::total 62916.738475                       # average ReadReq mshr uncacheable latency
system.cpu_cluster.cpus.icache.ReadReq_hits::.cpu_cluster.cpus.inst    386545783                       # number of ReadReq hits
system.cpu_cluster.cpus.icache.ReadReq_hits::total    386545783                       # number of ReadReq hits
system.cpu_cluster.cpus.icache.ReadReq_miss_latency::.cpu_cluster.cpus.inst 130362235750                       # number of ReadReq miss cycles
system.cpu_cluster.cpus.icache.ReadReq_miss_latency::total 130362235750                       # number of ReadReq miss cycles
system.cpu_cluster.cpus.icache.ReadReq_miss_rate::.cpu_cluster.cpus.inst     0.042967                       # miss rate for ReadReq accesses
system.cpu_cluster.cpus.icache.ReadReq_miss_rate::total     0.042967                       # miss rate for ReadReq accesses
system.cpu_cluster.cpus.icache.ReadReq_misses::.cpu_cluster.cpus.inst     17354376                       # number of ReadReq misses
system.cpu_cluster.cpus.icache.ReadReq_misses::total     17354376                       # number of ReadReq misses
system.cpu_cluster.cpus.icache.ReadReq_mshr_miss_latency::.cpu_cluster.cpus.inst 126023642000                       # number of ReadReq MSHR miss cycles
system.cpu_cluster.cpus.icache.ReadReq_mshr_miss_latency::total 126023642000                       # number of ReadReq MSHR miss cycles
system.cpu_cluster.cpus.icache.ReadReq_mshr_miss_rate::.cpu_cluster.cpus.inst     0.042967                       # mshr miss rate for ReadReq accesses
system.cpu_cluster.cpus.icache.ReadReq_mshr_miss_rate::total     0.042967                       # mshr miss rate for ReadReq accesses
system.cpu_cluster.cpus.icache.ReadReq_mshr_misses::.cpu_cluster.cpus.inst     17354376                       # number of ReadReq MSHR misses
system.cpu_cluster.cpus.icache.ReadReq_mshr_misses::total     17354376                       # number of ReadReq MSHR misses
system.cpu_cluster.cpus.icache.ReadReq_mshr_uncacheable::.cpu_cluster.cpus.inst         2321                       # number of ReadReq MSHR uncacheable
system.cpu_cluster.cpus.icache.ReadReq_mshr_uncacheable::total         2321                       # number of ReadReq MSHR uncacheable
system.cpu_cluster.cpus.icache.ReadReq_mshr_uncacheable_latency::.cpu_cluster.cpus.inst    146029750                       # number of ReadReq MSHR uncacheable cycles
system.cpu_cluster.cpus.icache.ReadReq_mshr_uncacheable_latency::total    146029750                       # number of ReadReq MSHR uncacheable cycles
system.cpu_cluster.cpus.icache.avg_blocked_cycles::no_mshrs          nan                       # average number of cycles each access was blocked
system.cpu_cluster.cpus.icache.avg_blocked_cycles::no_targets          nan                       # average number of cycles each access was blocked
system.cpu_cluster.cpus.icache.blocked::no_mshrs            0                       # number of cycles access was blocked
system.cpu_cluster.cpus.icache.blocked::no_targets            0                       # number of cycles access was blocked
system.cpu_cluster.cpus.icache.blocked_cycles::no_mshrs            0                       # number of cycles access was blocked
system.cpu_cluster.cpus.icache.blocked_cycles::no_targets            0                       # number of cycles access was blocked
system.cpu_cluster.cpus.icache.demand_accesses::.cpu_cluster.cpus.inst    403900159                       # number of demand (read+write) accesses
system.cpu_cluster.cpus.icache.demand_accesses::total    403900159                       # number of demand (read+write) accesses
system.cpu_cluster.cpus.icache.demand_avg_miss_latency::.cpu_cluster.cpus.inst  7511.778917                       # average overall miss latency
system.cpu_cluster.cpus.icache.demand_avg_miss_latency::total  7511.778917                       # average overall miss latency
system.cpu_cluster.cpus.icache.demand_avg_mshr_miss_latency::.cpu_cluster.cpus.inst  7261.778931                       # average overall mshr miss latency
system.cpu_cluster.cpus.icache.demand_avg_mshr_miss_latency::total  7261.778931                       # average overall mshr miss latency
system.cpu_cluster.cpus.icache.demand_hits::.cpu_cluster.cpus.inst    386545783                       # number of demand (read+write) hits
system.cpu_cluster.cpus.icache.demand_hits::total    386545783                       # number of demand (read+write) hits
system.cpu_cluster.cpus.icache.demand_miss_latency::.cpu_cluster.cpus.inst 130362235750                       # number of demand (read+write) miss cycles
system.cpu_cluster.cpus.icache.demand_miss_latency::total 130362235750                       # number of demand (read+write) miss cycles
system.cpu_cluster.cpus.icache.demand_miss_rate::.cpu_cluster.cpus.inst     0.042967                       # miss rate for demand accesses
system.cpu_cluster.cpus.icache.demand_miss_rate::total     0.042967                       # miss rate for demand accesses
system.cpu_cluster.cpus.icache.demand_misses::.cpu_cluster.cpus.inst     17354376                       # number of demand (read+write) misses
system.cpu_cluster.cpus.icache.demand_misses::total     17354376                       # number of demand (read+write) misses
system.cpu_cluster.cpus.icache.demand_mshr_miss_latency::.cpu_cluster.cpus.inst 126023642000                       # number of demand (read+write) MSHR miss cycles
system.cpu_cluster.cpus.icache.demand_mshr_miss_latency::total 126023642000                       # number of demand (read+write) MSHR miss cycles
system.cpu_cluster.cpus.icache.demand_mshr_miss_rate::.cpu_cluster.cpus.inst     0.042967                       # mshr miss rate for demand accesses
system.cpu_cluster.cpus.icache.demand_mshr_miss_rate::total     0.042967                       # mshr miss rate for demand accesses
system.cpu_cluster.cpus.icache.demand_mshr_misses::.cpu_cluster.cpus.inst     17354376                       # number of demand (read+write) MSHR misses
system.cpu_cluster.cpus.icache.demand_mshr_misses::total     17354376                       # number of demand (read+write) MSHR misses
system.cpu_cluster.cpus.icache.overall_accesses::.cpu_cluster.cpus.inst    403900159                       # number of overall (read+write) accesses
system.cpu_cluster.cpus.icache.overall_accesses::total    403900159                       # number of overall (read+write) accesses
system.cpu_cluster.cpus.icache.overall_avg_miss_latency::.cpu_cluster.cpus.inst  7511.778917                       # average overall miss latency
system.cpu_cluster.cpus.icache.overall_avg_miss_latency::total  7511.778917                       # average overall miss latency
system.cpu_cluster.cpus.icache.overall_avg_mshr_miss_latency::.cpu_cluster.cpus.inst  7261.778931                       # average overall mshr miss latency
system.cpu_cluster.cpus.icache.overall_avg_mshr_miss_latency::total  7261.778931                       # average overall mshr miss latency
system.cpu_cluster.cpus.icache.overall_avg_mshr_uncacheable_latency::.cpu_cluster.cpus.inst 62916.738475                       # average overall mshr uncacheable latency
system.cpu_cluster.cpus.icache.overall_avg_mshr_uncacheable_latency::total 62916.738475                       # average overall mshr uncacheable latency
system.cpu_cluster.cpus.icache.overall_hits::.cpu_cluster.cpus.inst    386545783                       # number of overall hits
system.cpu_cluster.cpus.icache.overall_hits::total    386545783                       # number of overall hits
system.cpu_cluster.cpus.icache.overall_miss_latency::.cpu_cluster.cpus.inst 130362235750                       # number of overall miss cycles
system.cpu_cluster.cpus.icache.overall_miss_latency::total 130362235750                       # number of overall miss cycles
system.cpu_cluster.cpus.icache.overall_miss_rate::.cpu_cluster.cpus.inst     0.042967                       # miss rate for overall accesses
system.cpu_cluster.cpus.icache.overall_miss_rate::total     0.042967                       # miss rate for overall accesses
system.cpu_cluster.cpus.icache.overall_misses::.cpu_cluster.cpus.inst     17354376                       # number of overall misses
system.cpu_cluster.cpus.icache.overall_misses::total     17354376                       # number of overall misses
system.cpu_cluster.cpus.icache.overall_mshr_miss_latency::.cpu_cluster.cpus.inst 126023642000                       # number of overall MSHR miss cycles
system.cpu_cluster.cpus.icache.overall_mshr_miss_latency::total 126023642000                       # number of overall MSHR miss cycles
system.cpu_cluster.cpus.icache.overall_mshr_miss_rate::.cpu_cluster.cpus.inst     0.042967                       # mshr miss rate for overall accesses
system.cpu_cluster.cpus.icache.overall_mshr_miss_rate::total     0.042967                       # mshr miss rate for overall accesses
system.cpu_cluster.cpus.icache.overall_mshr_misses::.cpu_cluster.cpus.inst     17354376                       # number of overall MSHR misses
system.cpu_cluster.cpus.icache.overall_mshr_misses::total     17354376                       # number of overall MSHR misses
system.cpu_cluster.cpus.icache.overall_mshr_uncacheable_latency::.cpu_cluster.cpus.inst    146029750                       # number of overall MSHR uncacheable cycles
system.cpu_cluster.cpus.icache.overall_mshr_uncacheable_latency::total    146029750                       # number of overall MSHR uncacheable cycles
system.cpu_cluster.cpus.icache.overall_mshr_uncacheable_misses::.cpu_cluster.cpus.inst         2321                       # number of overall MSHR uncacheable misses
system.cpu_cluster.cpus.icache.overall_mshr_uncacheable_misses::total         2321                       # number of overall MSHR uncacheable misses
[...]
system.mem_ctrls.wrQLenPdf::33                  11129                       # What write queue length does an incoming req see
system.mem_ctrls.wrQLenPdf::34                   9142                       # What write queue length does an incoming req see
system.mem_ctrls.wrQLenPdf::35                   7949                       # What write queue length does an incoming req see
system.mem_ctrls.wrQLenPdf::36                   7089                       # What write queue length does an incoming req see
system.mem_ctrls.wrQLenPdf::37                   6515                       # What write queue length does an incoming req see
system.mem_ctrls.wrQLenPdf::38                   5905                       # What write queue length does an incoming req see
system.mem_ctrls.wrQLenPdf::39                   5221                       # What write queue length does an incoming req see
system.mem_ctrls.wrQLenPdf::40                   4681                       # What write queue length does an incoming req see
system.mem_ctrls.wrQLenPdf::41                   4216                       # What write queue length does an incoming req see
system.mem_ctrls.wrQLenPdf::42                   3900                       # What write queue length does an incoming req see
system.mem_ctrls.wrQLenPdf::43                   3511                       # What write queue length does an incoming req see
system.mem_ctrls.wrQLenPdf::44                   3192                       # What write queue length does an incoming req see
system.mem_ctrls.wrQLenPdf::45                   2991                       # What write queue length does an incoming req see
system.mem_ctrls.wrQLenPdf::46                   2688                       # What write queue length does an incoming req see
system.mem_ctrls.wrQLenPdf::47                   2469                       # What write queue length does an incoming req see
system.mem_ctrls.wrQLenPdf::48                   2244                       # What write queue length does an incoming req see
system.mem_ctrls.wrQLenPdf::49                   2103                       # What write queue length does an incoming req see
system.mem_ctrls.wrQLenPdf::50                   1942                       # What write queue length does an incoming req see
system.mem_ctrls.wrQLenPdf::51                   1791                       # What write queue length does an incoming req see
system.mem_ctrls.wrQLenPdf::52                   1607                       # What write queue length does an incoming req see
system.mem_ctrls.wrQLenPdf::53                   1500                       # What write queue length does an incoming req see
system.mem_ctrls.wrQLenPdf::54                   1316                       # What write queue length does an incoming req see
system.mem_ctrls.wrQLenPdf::55                   1147                       # What write queue length does an incoming req see
system.mem_ctrls.wrQLenPdf::56                   1025                       # What write queue length does an incoming req see
system.mem_ctrls.wrQLenPdf::57                    833                       # What write queue length does an incoming req see
system.mem_ctrls.wrQLenPdf::58                    691                       # What write queue length does an incoming req see
system.mem_ctrls.wrQLenPdf::59                    560                       # What write queue length does an incoming req see
system.mem_ctrls.wrQLenPdf::60                    465                       # What write queue length does an incoming req see
system.mem_ctrls.wrQLenPdf::61                    353                       # What write queue length does an incoming req see
system.mem_ctrls.wrQLenPdf::62                    315                       # What write queue length does an incoming req see
system.mem_ctrls.wrQLenPdf::63                    336                       # What write queue length does an incoming req see
system.mem_ctrls.writeBursts                  4820533                       # Number of DRAM write bursts, including those merged in the write queue
system.mem_ctrls.writePktSize::0                    0                       # Write request sizes (log2)
system.mem_ctrls.writePktSize::1                    0                       # Write request sizes (log2)
system.mem_ctrls.writePktSize::2                    1                       # Write request sizes (log2)
system.mem_ctrls.writePktSize::3                 2572                       # Write request sizes (log2)
system.mem_ctrls.writePktSize::4                    0                       # Write request sizes (log2)
system.mem_ctrls.writePktSize::5                    0                       # Write request sizes (log2)
system.mem_ctrls.writePktSize::6              4817960                       # Write request sizes (log2)
system.mem_ctrls.writeReqs                    4820533                       # Number of write requests accepted
system.mem_ctrls.writeRowHitRate                80.73                       # Row buffer hit rate for writes
system.mem_ctrls.writeRowHits                 3889816                       # Number of row buffer hits during writes
system.mem_ctrls_0.actBackEnergy         268207385040                       # Energy for active background per rank (pJ)
system.mem_ctrls_0.actEnergy               7179719820                       # Energy for activate commands per rank (pJ)
system.mem_ctrls_0.actPowerDownEnergy               0                       # Energy for active power-down per rank (pJ)
system.mem_ctrls_0.averagePower            486.448475                       # Core power per rank (mW)
system.mem_ctrls_0.memoryStateTime::IDLE 3121964636494                       # Time in different power states
system.mem_ctrls_0.memoryStateTime::REF  124179640000                       # Time in different power states
system.mem_ctrls_0.memoryStateTime::SREF            0                       # Time in different power states
system.mem_ctrls_0.memoryStateTime::PRE_PDN            0                       # Time in different power states
system.mem_ctrls_0.memoryStateTime::ACT  472680266506                       # Time in different power states
system.mem_ctrls_0.memoryStateTime::ACT_PDN            0                       # Time in different power states
system.mem_ctrls_0.preBackEnergy         1202169774240                       # Energy for precharge background per rank (pJ)
system.mem_ctrls_0.preEnergy               3816092610                       # Energy for precharge commands per rank (pJ)
system.mem_ctrls_0.prePowerDownEnergy               0                       # Energy for precharge power-down per rank (pJ)
system.mem_ctrls_0.readEnergy             21655491480                       # Energy for read commands per rank (pJ)
system.mem_ctrls_0.refreshEnergy         293560668960.000061                       # Energy for refresh commands per rank (pJ)
system.mem_ctrls_0.selfRefreshEnergy                0                       # Energy for self refresh per rank (pJ)
system.mem_ctrls_0.totalEnergy           1809016527090                       # Total energy per rank (pJ)
system.mem_ctrls_0.totalIdleTime                    0                       # Total Idle time Per DRAM Rank
system.mem_ctrls_0.writeEnergy            12427394940                       # Energy for write commands per rank (pJ)
system.mem_ctrls_1.actBackEnergy         270708376320                       # Energy for active background per rank (pJ)
system.mem_ctrls_1.actEnergy               7471995720                       # Energy for activate commands per rank (pJ)
system.mem_ctrls_1.actPowerDownEnergy               0                       # Energy for active power-down per rank (pJ)
system.mem_ctrls_1.averagePower            486.797504                       # Core power per rank (mW)
system.mem_ctrls_1.memoryStateTime::IDLE 3116472641294                       # Time in different power states
system.mem_ctrls_1.memoryStateTime::REF  124179640000                       # Time in different power states
system.mem_ctrls_1.memoryStateTime::SREF            0                       # Time in different power states
system.mem_ctrls_1.memoryStateTime::PRE_PDN            0                       # Time in different power states
system.mem_ctrls_1.memoryStateTime::ACT  478172261706                       # Time in different power states
system.mem_ctrls_1.memoryStateTime::ACT_PDN            0                       # Time in different power states
system.mem_ctrls_1.preBackEnergy         1200063676320                       # Energy for precharge background per rank (pJ)
system.mem_ctrls_1.preEnergy               3971448525                       # Energy for precharge commands per rank (pJ)
system.mem_ctrls_1.prePowerDownEnergy               0                       # Energy for precharge power-down per rank (pJ)
system.mem_ctrls_1.readEnergy             21814663500                       # Energy for read commands per rank (pJ)
system.mem_ctrls_1.refreshEnergy         293560668960.000061                       # Energy for refresh commands per rank (pJ)
system.mem_ctrls_1.selfRefreshEnergy                0                       # Energy for self refresh per rank (pJ)
system.mem_ctrls_1.totalEnergy           1810314506265                       # Total energy per rank (pJ)
system.mem_ctrls_1.totalIdleTime                    0                       # Total Idle time Per DRAM Rank
system.mem_ctrls_1.writeEnergy            12723676920                       # Energy for write commands per rank (pJ)
system.membus.badaddr_responder.pwrStateResidencyTicks::UNDEFINED 3718824543000                       # Cumulative time (in ticks) in various power states
system.membus.pkt_count_system.cpu_cluster.l2.mem_side::system.mem_ctrls.port     20924746                       # Packet count per connected master and slave (bytes)
system.membus.pkt_count_system.cpu_cluster.l2.mem_side::system.iobridge.slave        44872                       # Packet count per connected master and slave (bytes)
system.membus.pkt_count_system.cpu_cluster.l2.mem_side::system.realview.gic.pio         4906                       # Packet count per connected master and slave (bytes)
system.membus.pkt_count_system.cpu_cluster.l2.mem_side::system.bootmem.port           30                       # Packet count per connected master and slave (bytes)
system.membus.pkt_count_system.cpu_cluster.l2.mem_side::total     20974554                       # Packet count per connected master and slave (bytes)
system.membus.pkt_count::total               20974554                       # Packet count per connected master and slave (bytes)
system.membus.pkt_size_system.cpu_cluster.l2.mem_side::system.mem_ctrls.port    700849252                       # Cumulative packet size per connected master and slave (bytes)
system.membus.pkt_size_system.cpu_cluster.l2.mem_side::system.iobridge.slave        44638                       # Cumulative packet size per connected master and slave (bytes)
system.membus.pkt_size_system.cpu_cluster.l2.mem_side::system.realview.gic.pio         9812                       # Cumulative packet size per connected master and slave (bytes)
system.membus.pkt_size_system.cpu_cluster.l2.mem_side::system.bootmem.port          620                       # Cumulative packet size per connected master and slave (bytes)
system.membus.pkt_size_system.cpu_cluster.l2.mem_side::total    700904322                       # Cumulative packet size per connected master and slave (bytes)
system.membus.pkt_size::total               700904322                       # Cumulative packet size per connected master and slave (bytes)
system.membus.pwrStateResidencyTicks::UNDEFINED 3718824543000                       # Cumulative time (in ticks) in various power states
system.membus.reqLayer0.occupancy         39288749922                       # Layer occupancy (ticks)
system.membus.reqLayer0.utilization               1.1                       # Layer utilization (%)
system.membus.reqLayer1.occupancy            42677735                       # Layer occupancy (ticks)
system.membus.reqLayer1.utilization               0.0                       # Layer utilization (%)
system.membus.reqLayer2.occupancy             4332700                       # Layer occupancy (ticks)
system.membus.reqLayer2.utilization               0.0                       # Layer utilization (%)
system.membus.reqLayer6.occupancy               25234                       # Layer occupancy (ticks)
system.membus.reqLayer6.utilization               0.0                       # Layer utilization (%)
system.membus.respLayer3.occupancy        32405581977                       # Layer occupancy (ticks)
system.membus.respLayer3.utilization              0.9                       # Layer utilization (%)
system.membus.snoopTraffic                          0                       # Total snoop traffic (bytes)
system.membus.snoop_fanout::samples           7936899                       # Request fanout histogram
system.membus.snoop_fanout::mean                    0                       # Request fanout histogram
system.membus.snoop_fanout::stdev                   0                       # Request fanout histogram
system.membus.snoop_fanout::underflows              0      0.00%      0.00% # Request fanout histogram
system.membus.snoop_fanout::0                 7936899    100.00%    100.00% # Request fanout histogram
system.membus.snoop_fanout::1                       0      0.00%    100.00% # Request fanout histogram
system.membus.snoop_fanout::2                       0      0.00%    100.00% # Request fanout histogram
system.membus.snoop_fanout::overflows               0      0.00%    100.00% # Request fanout histogram
system.membus.snoop_fanout::min_value               0                       # Request fanout histogram
system.membus.snoop_fanout::max_value               0                       # Request fanout histogram
system.membus.snoop_fanout::total             7936899                       # Request fanout histogram
system.membus.snoop_filter.hit_multi_requests            0                       # Number of requests hitting in the snoop filter with multiple (>1) holders of the requested data.
system.membus.snoop_filter.hit_multi_snoops            0                       # Number of snoops hitting in the snoop filter with multiple (>1) holders of the requested data.
system.membus.snoop_filter.hit_single_requests      6906198                       # Number of requests hitting in the snoop filter with a single holder of the requested data.
system.membus.snoop_filter.hit_single_snoops            0                       # Number of snoops hitting in the snoop filter with a single holder of the requested data.
system.membus.snoop_filter.tot_requests      13874166                       # Total number of requests made to the snoop filter.
system.membus.snoop_filter.tot_snoops               0                       # Total number of snoops made to the snoop filter.
system.membus.snoops                            24847                       # Total snoops (count)
system.membus.trans_dist::ReadReq               14904                       # Transaction distribution
system.membus.trans_dist::ReadResp            4884564                       # Transaction distribution
system.membus.trans_dist::WriteReq              14893                       # Transaction distribution
system.membus.trans_dist::WriteResp             14893                       # Transaction distribution
system.membus.trans_dist::WritebackDirty      3907341                       # Transaction distribution
system.membus.trans_dist::WriteClean           910619                       # Transaction distribution
system.membus.trans_dist::CleanEvict          2059726                       # Transaction distribution
system.membus.trans_dist::UpgradeReq            26612                       # Transaction distribution
system.membus.trans_dist::ReadExReq           1260515                       # Transaction distribution
system.membus.trans_dist::ReadExResp          1260515                       # Transaction distribution
system.membus.trans_dist::ReadSharedReq       4869660                       # Transaction distribution
system.membus.trans_dist::CleanInvalidReq       984003                       # Transaction distribution
system.membus.trans_dist::InvalidateReq        766309                       # Transaction distribution
system.pci_devices.pwrStateResidencyTicks::UNDEFINED 3718824543000                       # Cumulative time (in ticks) in various power states
system.realview.clock24MHz.clock                41667                       # Clock period in ticks
system.realview.clock24MHz.voltage_domain.voltage     3.300000                       # Voltage in Volts
system.realview.dcc.osc_cpu.clock               16667                       # Clock period in ticks
system.realview.dcc.osc_ddr.clock               25000                       # Clock period in ticks
system.realview.dcc.osc_hsbm.clock              25000                       # Clock period in ticks
system.realview.dcc.osc_pxl.clock               42105                       # Clock period in ticks
system.realview.dcc.osc_smb.clock               20000                       # Clock period in ticks
system.realview.dcc.osc_sys.clock               16667                       # Clock period in ticks
system.realview.energy_ctrl.pwrStateResidencyTicks::UNDEFINED 3718824543000                       # Cumulative time (in ticks) in various power states
system.realview.generic_timer.pwrStateResidencyTicks::UNDEFINED 3718824543000                       # Cumulative time (in ticks) in various power states
system.realview.gic.pwrStateResidencyTicks::UNDEFINED 3718824543000                       # Cumulative time (in ticks) in various power states
system.realview.gicv2m.pwrStateResidencyTicks::UNDEFINED 3718824543000                       # Cumulative time (in ticks) in various power states
system.realview.hdlcd.pwrStateResidencyTicks::UNDEFINED 3718824543000                       # Cumulative time (in ticks) in various power states
system.realview.kmi0.pwrStateResidencyTicks::UNDEFINED 3718824543000                       # Cumulative time (in ticks) in various power states
system.realview.kmi1.pwrStateResidencyTicks::UNDEFINED 3718824543000                       # Cumulative time (in ticks) in various power states
system.realview.mcc.osc_clcd.clock              42105                       # Clock period in ticks
system.realview.mcc.osc_mcc.clock               20000                       # Clock period in ticks
system.realview.mcc.osc_peripheral.clock        41667                       # Clock period in ticks
system.realview.mcc.osc_system_bus.clock        41667                       # Clock period in ticks
system.realview.pci_host.pwrStateResidencyTicks::UNDEFINED 3718824543000                       # Cumulative time (in ticks) in various power states
system.realview.realview_io.pwrStateResidencyTicks::UNDEFINED 3718824543000                       # Cumulative time (in ticks) in various power states
system.realview.rtc.pwrStateResidencyTicks::UNDEFINED 3718824543000                       # Cumulative time (in ticks) in various power states
system.realview.uart.pwrStateResidencyTicks::UNDEFINED 3718824543000                       # Cumulative time (in ticks) in various power states
system.realview.vgic.pwrStateResidencyTicks::UNDEFINED 3718824543000                       # Cumulative time (in ticks) in various power states
system.realview.vio0.pwrStateResidencyTicks::UNDEFINED 3718824543000                       # Cumulative time (in ticks) in various power states
system.realview.vio1.pwrStateResidencyTicks::UNDEFINED 3718824543000                       # Cumulative time (in ticks) in various power states
system.voltage_domain.voltage                       1                       # Voltage in Volts

---------- End Simulation Statistics   ----------